Circuit: * C:\Users\angel\Desktop\LTSPICE-Projects\PLANET\RGB_LED.asc

Direct Newton iteration for .op point succeeded.
Semiconductor Device Operating Points:
                        --- Diodes ---
Name:      d4          d3          d2          d1
Model:      d           d           d           d
Id:      1.71e-02    4.31e-03    4.31e-03    4.31e-03
Vd:      7.29e-01    6.93e-01    6.93e-01    6.93e-01
Req:     1.51e+00    6.01e+00    6.01e+00    6.01e+00
CAP:     0.00e+00    0.00e+00    0.00e+00    0.00e+00



Date: Sat Feb 25 16:18:01 2023
Total elapsed time: 0.134 seconds.

tnom = 27
temp = 27
method = trap
totiter = 6
traniter = 0
tranpoints = 0
accept = 0
rejected = 0
matrix size = 12
fillins = 0
solver = Normal
Matrix Compiler1: 230 bytes object code size
Matrix Compiler2: 688 bytes object code size
