Circuit: * C:\Users\angel\Desktop\Bryx\SPICE\GPIO_ground_closure_converter\voltage_divider.asc

Limiting rise time of source v2 to 1e-008
Limiting fall time of source v2 to 1e-008
Direct Newton iteration for .op point succeeded.

Date: Thu Sep 16 15:35:10 2021
Total elapsed time: 0.060 seconds.

tnom = 27
temp = 27
method = modified trap
totiter = 2232
traniter = 2229
tranpoints = 1115
accept = 1101
rejected = 14
matrix size = 6
fillins = 0
solver = Normal
Matrix Compiler1: 128 bytes object code size  0.1/0.0/[0.0]
Matrix Compiler2: 326 bytes object code size  0.0/0.0/[0.0]

